**************************************************
*                 MODEL 1 LISTING                *
**************************************************
 -- namelist NAM_CONFZ not found: default values used if required
 -- namelist NAM_CONFIO read
 -- namelist NAM_IBM_PARAMN not found: default values used if required
 -- namelist NAM_RECYCL_PARAMN not found: default values used if required
 -- namelist NAM_SERIESN not found: default values used if required
 -- namelist NAM_BLOWSNOWn not found: default values used if required
 -- namelist NAM_BLANKN read
 -- namelist NAM_STATIONN not found: default values used if required
 -- namelist NAM_SERIES not found: default values used if required
 -- namelist NAM_TURB_CLOUD not found: default values used if required
 -- namelist NAM_TURB not found: default values used if required
 -- namelist NAM_CH_ORILAM not found: default values used if required
 -- namelist NAM_DUST not found: default values used if required
 -- namelist NAM_SALT not found: default values used if required
 -- namelist NAM_PASPOL not found: default values used if required
 -- namelist NAM_CONDSAMP not found: default values used if required
 -- namelist NAM_BLOWSNOW not found: default values used if required
 -- namelist NAM_2D_FRC not found: default values used if required
 -- namelist NAM_VISC not found: default values used if required

DESCRIPTOR OF INITIAL FILE FOR MODEL  1
------------------------------------ 
********** LOGICAL UNITSn **********
&NAM_LUNITN
 CINIFILE=IDEAL_LANNEMEZAN            
 CINIFILEPGD=IDEAL_LANNEMEZAN_PGD        
 CCPLFILE= 24*                            
 /
********** CONFIGURATIONn **********
&NAM_CONFN
 LUSERV=T,
 LUSERC=F,
 LUSERR=F,
 LUSERI=F,
 LUSERS=F,
 LUSERG=F,
 LUSERH=F,
 LUSECI=F,
 NSV_USER=0          ,
 /
********** DYNAMICn ****************
&NAM_DYNN
 XTSTEP=  60.000000000000000     ,
 CPRESOPT=CRESI
 NITR=4          ,
 LITRADJ=T,
 LRES=F,
 XRES=  9.9999999999999995E-008,
 XRELAX=  1.0000000000000000     ,
 LHORELAX_UVWTH=F,
 LHORELAX_RV=F,
 LHORELAX_RC=F,
 LHORELAX_RR=F,
 LHORELAX_RI=F,
 LHORELAX_RS=F,
 LHORELAX_RG=F,
 LHORELAX_RH=F,
 LHORELAX_TKE=F,
 LHORELAX_SVC2R2=F,
 LHORELAX_SVC1R3=F,
 LHORELAX_SVELEC=F,
 LHORELAX_SVCHEM=F,
 LHORELAX_SVCHIC=F,
 LHORELAX_SVLG=F,
 LHORELAX_SVDST=F,
 LHORELAX_SVSLT=F,
 LHORELAX_SVAER=F,
 LHORELAX_SVPP=F,
 LHORELAX_SVSNW=F,
 LHORELAX_SVCS=F,
 LHORELAX_SV= 200*F,
 LVE_RELAX=F,
 LVE_RELAX_GRD=F,
 LOCEAN=F,
 NRIMX=0          ,
 NRIMY=0          ,
 XRIMKMAX=  1.6666666666666666E-004,
 XT4DIFU=  1800.0000000000000     ,
 XT4DIFTH=  1800.0000000000000     ,
 XT4DIFSV=  1800.0000000000000     ,
 /
********** ADVECTIONn **************
&NAM_ADVN
 CUVW_ADV_SCHEME=CEN4TH
 CMET_ADV_SCHEME=PPM_01
 CSV_ADV_SCHEME=PPM_01
 CTEMP_SCHEME=RKC4
 NWENO_ORDER=3          ,
 LSPLIT_CFL=T,
 LSPLIT_WENO=T,
 XSPLIT_CFL= 0.80000000000000004     ,
 LCFL_WRIT=F,
 /
********** PARAMETERIZATIONSn ******
&NAM_PARAMN
 CTURB=NONE
 CRAD=NONE
 CCLOUD=NONE
 CDCONV=NONE
 CSCONV=NONE
 CELEC=NONE
 CACTCCN=NONE
 /
********** RADIATIONSn *************
&NAM_PARAM_RADN
 XDTRAD=  60.000000000000000     ,
 XDTRAD_CLONLY=  60.000000000000000     ,
 LCLEAR_SKY=F,
 NRAD_COLNBR=1000       ,
 NRAD_DIAG=0          ,
 CLW=RRTM
 CAER=SURF
 CAOP=CLIM
 CEFRADL=MART
 CEFRADI=LIOU
 COPWLW=SMSH
 COPILW=EBCU
 COPWSW=FOUQ
 COPISW=EBCU
 XFUDG=  1.0000000000000000     ,
 LAERO_FT=F,
 LFIX_DAT=F,
 /
********** DEEP CONVECTIONn ********
&NAM_PARAM_KAFRN
 XDTCONV=  300.00000000000000     ,
 LREFRESH_ALL=T,
 LCHTRANS=F,
 LDOWN=T,
 NICE=1          ,
 LSETTADJ=F,
 XTADJD=  3600.0000000000000     ,
 XTADJS=  10800.000000000000     ,
 LDIAGCONV=F,
 NENSM=0          ,
 /
*** MASS FLUX SHALLOW CONVECTION ***
&NAM_PARAM_MFSHALLN
 XIMPL_MF=  1.0000000000000000     ,
 CMF_UPDRAFT=EDKF
 CMF_CLOUD=DIRE
 LMIXUV=T,
 LMF_FLX=F,
 XALP_PERT= 0.29999999999999999     ,
 XABUO=  1.0000000000000000     ,
 XBENTR=  1.0000000000000000     ,
 XBDETR=  0.0000000000000000     ,
 XCMF=  6.5000000000000002E-002,
 XENTR_MF=  3.5000000000000003E-002,
 XCRAD_MF=  50.000000000000000     ,
 XENTR_DRY= 0.55000000000000004     ,
 XDETR_DRY=  10.000000000000000     ,
 XDETR_LUP=  1.0000000000000000     ,
 XKCF_MF=  2.7500000000000000     ,
 XKRC_MF=  1.0000000000000000     ,
 XTAUSIGMF=  600.00000000000000     ,
 XPRES_UV= 0.50000000000000000     ,
 XALPHA_MF=  2.0000000000000000     ,
 XSIGMA_MF=  20.000000000000000     ,
 XFRAC_UP_MAX= 0.33000000000000002     ,
 XA1= 0.66666666666666663     ,
 XB=  2.0000000000000000E-003,
 XC=  1.2000000000000000E-002,
 XBETA1= 0.90000000000000002     ,
 XR=  2.0000000000000000     ,
 XLAMBDA_MF=  0.0000000000000000     ,
 LGZ=F,
 XGZ=  1.8300000000000001     ,
 /
********** LBCn ********************
&NAM_LBCN
 CLBCX= 2*CYCL
 CLBCY= 2*CYCL
 NLBLX= 2*1          ,
 NLBLY= 2*1          ,
 XCPHASE=  20.000000000000000     ,
 XCPHASE_PBL=  0.0000000000000000     ,
 XCARPKMAX=  999.00000000000000     ,
 XPOND=  1.0000000000000000     ,
 /
********** TURBn *******************
&NAM_TURBN
 XIMPL=  1.0000000000000000     ,
 CTURBLEN=BL89
 CTURBDIM=1DIM
 LTURB_FLX=F,
 LTURB_DIAG=F,
 LSUBG_COND=F,
 LSIGMAS=T,
 LSIG_CONV=F,
 LRMC01=F,
 CTOM=NONE
 CSUBG_AUCV=NONE
 XKEMIN=  1.0000000000000000E-002,
 VSIGQSAT=  2.0000000000000000E-002,
 XCEDIS= 0.83999999999999997     ,
 XCADAP= 0.50000000000000000     ,
 CSUBG_AUCV_RI=NONE                                                                            
 CCONDENS=CB02                                                                            
 CLAMBDA3=CB  
 CSUBG_MF_PDF=TRIANGLE                                                                        
 LHGRAD=F,
 XCOEFHGRADTHL=  1.0000000000000000     ,
 XCOEFHGRADRM=  1.0000000000000000     ,
 XALTHGRAD=  2000.0000000000000     ,
 XCLDTHOLD= -1.0000000000000000     ,
 /
********** DRAGn *******************
&NAM_DRAGN
 LDRAG=F,
 LMOUNT=F,
 XHSTART=  0.0000000000000000     ,
 NSTART=1          ,
 /
********** IBM FORCING *************
&NAM_IBM_PARAMN
 LIBM=F,
 LIBM_TROUBLE=F,
 CIBM_ADV=NOTHIN
 NIBM_ITR=8          ,
 XIBM_VISC=  1.5600000000000000E-005,
 XIBM_EPSI=  1.0000000000000001E-009,
 XIBM_IEPS=  1000000000.0000000     ,
 XIBM_RUG=  1.0000000000000000E-002,
 XIBM_CNU=  5.9999999999999998E-002,
 NIBM_LAYER_P=2          ,
 NIBM_LAYER_Q=2          ,
 NIBM_LAYER_R=2          ,
 NIBM_LAYER_S=2          ,
 NIBM_LAYER_T=2          ,
 NIBM_LAYER_E=2          ,
 NIBM_LAYER_V=2          ,
 CIBM_MODE_INTE1_P=CL2
 CIBM_MODE_INTE1_Q=CL2
 CIBM_MODE_INTE1_R=CL2
 CIBM_MODE_INTE1_S=CL2
 CIBM_MODE_INTE1_T=CL2
 CIBM_MODE_INTE1_E=CL2
 CIBM_MODE_INTE1NV=CL2
 CIBM_MODE_INTE1TV=CL2
 CIBM_MODE_INTE1CV=CL2
 CIBM_MODE_INTE3_P=LAI
 CIBM_MODE_INTE3_Q=LAI
 CIBM_MODE_INTE3_R=LAI
 CIBM_MODE_INTE3_S=LAI
 CIBM_MODE_INTE3_T=LAI
 CIBM_MODE_INTE3_E=LAI
 CIBM_MODE_INTE3_V=LAI
 CIBM_MODE_BOUND_P=SYM
 CIBM_MODE_BOUND_Q=SYM
 CIBM_MODE_BOUND_R=SYM
 CIBM_MODE_BOUND_S=SYM
 CIBM_MODE_BOUND_T=SYM
 CIBM_MODE_BOUND_E=SYM
 CIBM_TYPE_BOUND_P=NEU
 CIBM_TYPE_BOUND_Q=NEU
 CIBM_TYPE_BOUND_R=NEU
 CIBM_TYPE_BOUND_S=NEU
 CIBM_TYPE_BOUND_T=NEU
 CIBM_TYPE_BOUND_E=NEU
 CIBM_FORC_BOUND_P=CST
 CIBM_FORC_BOUND_Q=CST
 CIBM_FORC_BOUND_R=CST
 CIBM_FORC_BOUND_S=CST
 CIBM_FORC_BOUND_T=CST
 CIBM_FORC_BOUND_E=CST
 XIBM_FORC_BOUND_P=  0.0000000000000000     ,
 XIBM_FORC_BOUND_Q=  0.0000000000000000     ,
 XIBM_FORC_BOUND_R=  0.0000000000000000     ,
 XIBM_FORC_BOUND_S=  0.0000000000000000     ,
 XIBM_FORC_BOUND_T=  0.0000000000000000     ,
 XIBM_FORC_BOUND_E=  0.0000000000000000     ,
 CIBM_MODE_BOUNN_V=ASY
 CIBM_MODE_BOUNT_V=ASY
 CIBM_MODE_BOUNC_V=ASY
 CIBM_TYPE_BOUNN_V=DIR
 CIBM_TYPE_BOUNT_V=DIR
 CIBM_TYPE_BOUNC_V=DIR
 CIBM_FORC_BOUNN_V=CST
 CIBM_FORC_BOUNT_V=CST
 CIBM_FORC_BOUNC_V=CST
 CIBM_FORC_BOUNR_V=CST
 XIBM_FORC_BOUNN_V=  0.0000000000000000     ,
 XIBM_FORC_BOUNT_V=  0.0000000000000000     ,
 XIBM_FORC_BOUNC_V=  0.0000000000000000     ,
 XIBM_RADIUS_P=  2.0000000000000000     ,
 XIBM_RADIUS_Q=  2.0000000000000000     ,
 XIBM_RADIUS_R=  2.0000000000000000     ,
 XIBM_RADIUS_S=  2.0000000000000000     ,
 XIBM_RADIUS_T=  2.0000000000000000     ,
 XIBM_RADIUS_E=  2.0000000000000000     ,
 XIBM_RADIUS_V=  2.0000000000000000     ,
 XIBM_POWERS_P=  1.0000000000000000     ,
 XIBM_POWERS_Q=  1.0000000000000000     ,
 XIBM_POWERS_R=  1.0000000000000000     ,
 XIBM_POWERS_S=  1.0000000000000000     ,
 XIBM_POWERS_T=  1.0000000000000000     ,
 XIBM_POWERS_E=  1.0000000000000000     ,
 XIBM_POWERS_V=  1.0000000000000000     ,
 /
********** RECYLING *************
&NAM_RECYCL_PARAMN
 LRECYCL=F,
 LRECYCLN=F,
 LRECYCLW=F,
 LRECYCLE=F,
 LRECYCLS=F,
 XDRECYCLW=  0.0000000000000000     ,
 XARECYCLW=  0.0000000000000000     ,
 XDRECYCLN=  0.0000000000000000     ,
 XARECYCLN=  0.0000000000000000     ,
 XDRECYCLE=  0.0000000000000000     ,
 XARECYCLE=  0.0000000000000000     ,
 XDRECYCLS=  0.0000000000000000     ,
 XARECYCLS=  0.0000000000000000     ,
 XTMOY=  0.0000000000000000     ,
 XTMOYCOUNT=  0.0000000000000000     ,
 XNUMBELT=  28.000000000000000     ,
 XRCOEFF= 0.20000000000000001     ,
 XTBVTOP=  500.00000000000000     ,
 XTBVBOT=  300.00000000000000     ,
 /
********** NUDGINGn ****************
&NAM_NUDGINGN
 LNUDGING=F,
 XTNUDGING=  21600.000000000000     ,
 /
********** CHEMICAL MONITORn *******
&NAM_CH_MNHCN
 LUSECHEM=F,
 LUSECHAQ=F,
 LUSECHIC=F,
 LCH_INIT_FIELD=F,
 LCH_CONV_SCAV=F,
 LCH_CONV_LINOX=F,
 LCH_PH=F,
 LCH_RET_ICE=F,
 XCH_PHINIT=  5.2000000000000002     ,
 XRTMIN_AQ=  4.9999999999999998E-008,
 CCHEM_INPUT_FILE=EXSEG1.nam                                                                      
 CCH_TDISCRETIZATION=SPLIT     
 NCH_SUBSTEPS=1          ,
 LCH_TUV_ONLINE=F,
 CCH_TUV_LOOKUP=PHOTO.TUV39                                                                     
 CCH_TUV_CLOUDS=NONE
 XCH_TUV_ALBNEW= -1.0000000000000000     ,
 XCH_TUV_DOBNEW= -1.0000000000000000     ,
 XCH_TUV_TUPDATE=  600.00000000000000     ,
 CCH_VEC_METHOD=MAX
 NCH_VEC_LENGTH=50         ,
 XCH_TS1D_TSTEP=  600.00000000000000     ,
 CCH_TS1D_COMMENT=no comment                                                                      
 CCH_TS1D_FILENAME=IO1D                                                                            
 CSPEC_PRODLOSS=                                                                                                                                                                                                                                                                                                                                                                                                                                                                                                                                                                                                                                                                                                                                                                                                                                                                                                                                                                                                                                                                
 CSPEC_BUDGET=                                                                                                                                                                                                                                                                                                                                                                                                                                                                                                                                                                                                                                                                                                                                                                                                                                                                                                                                                                                                                                                                
 /
********** CHEMICAL SOLVER *********
&NAM_CH_SOLVERN
 CSOLVER=EXQSSA                          
 NSSA=0          ,
 NSSAINDEX= 1000*0          ,
 XRTOL=  1.0000000000000000E-003,
 XATOL= 0.10000000000000001     ,
 NRELAB=2          ,
 NPED=1          ,
 NMAXORD=5          ,
 LPETZLD=T,
 CMETHOD=N
 CNORM=A
 NTRACE=0          ,
 XALPHA= 0.50000000000000000     ,
 XSLOW=  100.00000000000000     ,
 XFAST= 0.10000000000000001     ,
 NQSSAITER=1          ,
 XDTMIN= 0.10000000000000001     ,
 XDTMAX=  30.000000000000000     ,
 XDTFIRST=  10.000000000000000     ,
 /
********** BLOWSNOWn ***************
&NAM_BLOWSNOWN
 LSNOWSUBL=F,
 /
********** BLANKn ******************
&NAM_BLANKN
 XDUMMY1=  0.0000000000000000     ,
 XDUMMY2=  0.0000000000000000     ,
 XDUMMY3=  0.0000000000000000     ,
 XDUMMY4=  0.0000000000000000     ,
 XDUMMY5=  0.0000000000000000     ,
 XDUMMY6=  0.0000000000000000     ,
 XDUMMY7=  0.0000000000000000     ,
 XDUMMY8=  0.0000000000000000     ,
 NDUMMY1=0          ,
 NDUMMY2=0          ,
 NDUMMY3=0          ,
 NDUMMY4=0          ,
 NDUMMY5=0          ,
 NDUMMY6=0          ,
 NDUMMY7=0          ,
 NDUMMY8=0          ,
 LDUMMY1=T,
 LDUMMY2=T,
 LDUMMY3=T,
 LDUMMY4=T,
 LDUMMY5=T,
 LDUMMY6=T,
 LDUMMY7=T,
 LDUMMY8=T,
 CDUMMY1=                                                                                
 CDUMMY2=                                                                                
 CDUMMY3=                                                                                
 CDUMMY4=                                                                                
 CDUMMY5=                                                                                
 CDUMMY6=                                                                                
 CDUMMY7=                                                                                
 CDUMMY8=                                                                                
 /
********** STATIONn ******************
&NAM_STATIONN
 NNUMB_STAT=0          ,
 XSTEP_STAT=  60.000000000000000     ,
 XX_STAT= 100*999.00000000000000       ,
 XY_STAT= 100*999.00000000000000       ,
 XZ_STAT= 100*999.00000000000000       ,
 XLON_STAT= 100*999.00000000000000       ,
 XLAT_STAT= 100*999.00000000000000       ,
 CNAME_STAT= 100*       
 CTYPE_STAT= 100*       
 CFILE_STAT=NO_INPUT_CSV        
 LDIAG_SURFRAD=T,
 /

PART OF INITIAL FILE COMMON TO ALL THE MODELS
---------------------------------------------
************ CONFIGURATION ********************
&NAM_CONF
 CCONF=START
 LFLAT=T,
 NMODEL=1          ,
 CEQNSYS=DUR
 NVERB=10         ,
 CEXP=EXP01
 CSEG=SEG01
 LFORCING=T,
 NHALO=1          ,
 CSPLIT=BSPLITTING
 LLG=F,
 LINIT_LG=F,
 CINIT_LG=FMOUT
 LNOMIXLG=F,
 LCHECK=F,
 JPHEXT=1          ,
 /
************ DYNAMIC **************************
&NAM_DYN
 XSEGLEN=  43200.000000000000     ,
 XASSELIN= 0.20000000000000001     ,
 XASSELIN_SV=  2.0000000000000000E-002,
 LCORIO=T,
 LNUMDIFU=T,
 LNUMDIFTH=F,
 LNUMDIFSV=F,
 XALKTOP=  1.0000000000000000E-002,
 XALZBOT=  4000.0000000000000     ,
 LZDIFFU=F,
 XALKGRD=  1.0000000000000000E-002,
 XALZBAS=  1.0000000000000000E-002,
 /
************ LES ******************************
&NAM_LES
 LLES_MEAN=F,
 LLES_RESOLVED=F,
 LLES_SUBGRID=F,
 LLES_UPDRAFT=F,
 LLES_DOWNDRAFT=F,
 LLES_SPECTRA=F,
 NLES_LEVELS= 900*999        ,
 XLES_ALTITUDES= 900*999.00000000000000       ,
 NSPECTRA_LEVELS= 900*999        ,
 XSPECTRA_ALTITUDES= 900*999.00000000000000       ,
 NLES_TEMP_SERIE_I= 10*999        ,
 NLES_TEMP_SERIE_J= 10*999        ,
 NLES_TEMP_SERIE_Z= 10*999        ,
 CLES_NORM_TYPE=NONE
 CBL_HEIGHT_DEF=KE 
 XLES_TEMP_SAMPLING=  999.00000000000000     ,
 XLES_TEMP_MEAN_START=  999.00000000000000     ,
 XLES_TEMP_MEAN_END=  999.00000000000000     ,
 XLES_TEMP_MEAN_STEP=  3600.0000000000000     ,
 LLES_CART_MASK=F,
 NLES_IINF=999        ,
 NLES_ISUP=999        ,
 NLES_JINF=999        ,
 NLES_JSUP=999        ,
 LLES_NEB_MASK=F,
 LLES_CORE_MASK=F,
 LLES_MY_MASK=F,
 LLES_CS_MASK=F,
 NLES_MASKS_USER=999        ,
 /
************ PDF ******************************
&NAM_PDF
 LLES_PDF=F,
 NPDF=1          ,
 XTH_PDF_MIN=  270.00000000000000     ,
 XTH_PDF_MAX=  350.00000000000000     ,
 XW_PDF_MIN= -10.000000000000000     ,
 XW_PDF_MAX=  10.000000000000000     ,
 XTHV_PDF_MIN=  270.00000000000000     ,
 XTHV_PDF_MAX=  350.00000000000000     ,
 XRV_PDF_MIN=  0.0000000000000000     ,
 XRV_PDF_MAX=  20.000000000000000     ,
 XRC_PDF_MIN=  0.0000000000000000     ,
 XRC_PDF_MAX=  1.0000000000000000     ,
 XRR_PDF_MIN=  0.0000000000000000     ,
 XRR_PDF_MAX=  1.0000000000000000     ,
 XRI_PDF_MIN=  0.0000000000000000     ,
 XRI_PDF_MAX=  1.0000000000000000     ,
 XRS_PDF_MIN=  0.0000000000000000     ,
 XRS_PDF_MAX=  1.0000000000000000     ,
 XRG_PDF_MIN=  0.0000000000000000     ,
 XRG_PDF_MAX=  1.0000000000000000     ,
 XRT_PDF_MIN=  0.0000000000000000     ,
 XRT_PDF_MAX=  20.000000000000000     ,
 XTHL_PDF_MIN=  270.00000000000000     ,
 XTHL_PDF_MAX=  350.00000000000000     ,
 /
************ FORCING **************************
&NAM_FRC
 LGEOST_UV_FRC=F,
 LGEOST_TH_FRC=F,
 LTEND_THRV_FRC=F,
 LTEND_UV_FRC=F,
 LVERT_MOTION_FRC=F,
 LRELAX_THRV_FRC=F,
 LRELAX_UV_FRC=F,
 LRELAX_UVMEAN_FRC=F,
 XRELAX_TIME_FRC=  10800.000000000000     ,
 XRELAX_HEIGHT_FRC=  0.0000000000000000     ,
 CRELAX_HEIGHT_TYPE=FIXE
 LTRANS=F,
 XUTRANS=  0.0000000000000000     ,
 XVTRANS=  0.0000000000000000     ,
 LPGROUND_FRC=F,
 LDEEPOC=F,
 XCENTX_OC=  16000.000000000000     ,
 XCENTY_OC=  16000.000000000000     ,
 XRADX_OC=  8000.0000000000000     ,
 XRADY_OC=  8000.0000000000000     ,
 /
************ ICE SCHEME ***********************
&NAM_PARAM_ICE
 LWARM=T,
 LSEDIC=T,
 LCONVHG=F,
 CPRISTINE_ICE=PLAT
 CSEDIM=SPLI
 LDEPOSC=F,
 XVDEPOSC=  2.0000000000000000E-002,
 LRED=T,
 LFEEDBACKT=T,
 LEVLIMIT=T,
 LNULLWETG=T,
 LWETGPOST=T,
 LNULLWETH=T,
 LWETHPOST=T,
 CSNOWRIMING=M90 
 XFRACM90= 0.10000000000000001     ,
 NMAXITER=5          ,
 XMRSTEP=  5.0000000000000002E-005,
 XTSTEP_TS=  0.0000000000000000     ,
 LADJ_BEFORE=T,
 LADJ_AFTER=T,
 CFRAC_ICE_ADJUST=S
 LCRFLIMIT=T,
 XSPLIT_MAXCFL= 0.80000000000000004     ,
 CFRAC_ICE_SHALLOW_MF=S
 LSEDIM_AFTER=F,
 CSUBG_RC_RR_ACCR=NONE                                                                            
 CSUBG_RR_EVAP=NONE                                                                            
 CSUBG_PR_PDF=SIGM                                                                            
 /
************ ORILAM SCHEME ********************
&NAM_CH_ORILAM
 LORILAM=F,
 XN0IMIN=  1000000.0000000000     ,
 XN0JMIN=  10000.000000000000     ,
 LSEDIMAERO=F,
 LAERINIT=F,
 LHETEROSO4=F,
 CNUCLEATION=NONE                                                                            
 XINISIGI=  1.7500000000000000     ,
 XINISIGJ=  1.7600000000000000     ,
 XINIRADIUSI=  3.9000000000000000E-002,
 XINIRADIUSJ= 0.32100000000000001     ,
 LVARSIGI=F,
 LVARSIGJ=F,
 CMINERAL=NONE 
 CORGANIC=NONE 
 XSIGIMIN=  1.1000000000000001     ,
 XSIGIMAX=  3.6000000000000001     ,
 XSIGJMIN=  1.1000000000000001     ,
 XSIGJMAX=  3.6000000000000001     ,
 XCOEFRADIMAX=  30.000000000000000     ,
 XCOEFRADIMIN=  3.0000000000000000     ,
 XCOEFRADJMAX=  30.000000000000000     ,
 XCOEFRADJMIN=  10.000000000000000     ,
 CRGUNIT=NUMB
 LRGFIX=F,
 LDEPOS_AER= 8*F,
 /
************ SALT SCHEME **********************
&NAM_SALT
 LSALT=F,
 CRGUNITS=NUMB
 LVARSIG_SLT=F,
 LSEDIMSALT=F,
 XN0MIN_SLT= 5*1.0000000000000000       ,
 XINIRADIUS_SLT=  8.9999999999999993E-003,  2.1000000000000001E-002,  4.4999999999999998E-002, 0.11500000000000000     , 0.41499999999999998     ,,
 
 XINISIG_SLT=  1.3700000000000001     ,  1.5000000000000000     ,  1.4199999999999999     ,  1.5300000000000000     ,  1.8500000000000001     ,,
 
 XSIGMIN_SLT=  1.2000000000000000     ,
 XSIGMAX_SLT=  3.6000000000000001     ,
 XCOEFRADMAX_SLT=  10.000000000000000     ,
 XCOEFRADMIN_SLT= 0.10000000000000001     ,
 NMODE_SLT=5          ,
 LRGFIX_SLT=F,
 LDEPOS_SLT= 8*F,
 LONLY=F,
 /
************ DUST SCHEME **********************
&NAM_DUST
 LDUST=F,
 CRGUNITD=NUMB
 LVARSIG=F,
 LSEDIMDUST=F,
 XN0MIN=  1000.0000000000000     ,  10.000000000000000     ,  1.0000000000000000E-002,
 XINIRADIUS=  3.9000000000000000E-002, 0.32050000000000001     ,  2.5000000000000000     ,
 XINISIG=  1.7500000000000000     ,  1.7600000000000000     ,  1.7000000000000000     ,
 XSIGMIN=  1.2000000000000000     ,
 XSIGMAX=  3.6000000000000001     ,
 XCOEFRADMAX=  10.000000000000000     ,
 XCOEFRADMIN= 0.10000000000000001     ,
 NMODE_DST=3          ,
 LRGFIX_DST=F,
 LDEPOS_DST= 8*F,
 /
************ PASSIVE POLLUTANT  ***************
&NAM_PASPOL
 LPASPOL=F,
 NRELEASE=0          ,
 CPPINIT= 100*1PT
 XPPLAT= 100*0.0000000000000000       ,
 XPPLON= 100*0.0000000000000000       ,
 XPPMASS= 100*0.0000000000000000       ,
 XPPBOT= 100*0.0000000000000000       ,
 XPPTOP= 100*0.0000000000000000       ,
 CPPT1= 100*20010921090000
 CPPT2= 100*20010921090000
 CPPT3= 100*20010921091500
 CPPT4= 100*20010921091500
 /
************ VISCOSITY  ***************
&NAM_VISC
 LVISC=F,
 LVISC_UVW=F,
 LVISC_TH=F,
 LVISC_SV=F,
 LVISC_R=F,
 XMU_V=  0.0000000000000000     ,
 XPRANDTL=  0.0000000000000000     ,
 /
************ CONDITIONAL SAMPLING *************
&NAM_CONDSAMP
 LCONDSAMP=F,
 NCONDSAMP=3          ,
 XRADIO= 3*900.00000000000000       ,
 XSCAL= 3*1.0000000000000000       ,
 XHEIGHT_BASE=  100.00000000000000     ,
 XDEPTH_BASE=  100.00000000000000     ,
 XHEIGHT_TOP=  100.00000000000000     ,
 XDEPTH_TOP=  100.00000000000000     ,
 NFINDTOP=0          ,
 XTHVP= 0.25000000000000000     ,
 LTPLUS=T,
 /
********** BLOWING SNOW SCHEME******************
&NAM_BLOWSNOW
 LBLOWSNOW=F,
 CSNOWSEDIM=TABC
 XALPHA_SNOW=  3.0000000000000000     ,
 XRSNOW=  4.0000000000000000     ,
 /
INFO:    INI_FIELD_LIST:               number of used fields= 230 out of  250

READING THE EXSEG.NAM FILE
 -- namelist NAM_LUNITN read
 -- namelist NAM_CONFN read
 -- namelist NAM_DYNN read
 -- namelist NAM_ADVN read
 -- namelist NAM_PARAMN read
 -- namelist NAM_PARAM_RADN read
 -- namelist NAM_PARAM_KAFRN not found: default values used if required
 -- namelist NAM_PARAM_MFSHALLN not found: default values used if required
 -- namelist NAM_LBCN read
 -- namelist NAM_NUDGINGN not found: default values used if required
 -- namelist NAM_TURBN read
 -- namelist NAM_DRAGN not found: default values used if required
 -- namelist NAM_IBM_PARAMN not found: default values used if required
 -- namelist NAM_RECYCL_PARAMN not found: default values used if required
 -- namelist NAM_CH_MNHCN not found: default values used if required
 -- namelist NAM_CH_SOLVERN not found: default values used if required
 -- namelist NAM_SERIESN not found: default values used if required
 -- namelist NAM_BLANKN not found: default values used if required
 -- namelist NAM_BLOWSNOWN not found: default values used if required
 -- namelist NAM_DRAGTREEN not found: default values used if required
 -- namelist NAM_DRAGBLDGN not found: default values used if required
 -- namelist NAM_EOL not found: default values used if required
 -- namelist NAM_EOL_ADNR not found: default values used if required
 -- namelist NAM_EOL_ALM not found: default values used if required
 -- namelist NAM_STATIONN not found: default values used if required
 namelists common to all the models 
 -- namelist NAM_CONF read
 -- namelist NAM_CONFZ not found: default values used if required
 -- namelist NAM_DYN read
 -- namelist NAM_NESTING not found: default values used if required
 -- namelist NAM_BACKUP read
 -- namelist NAM_OUTPUT not found: default values used if required
 -- namelist NAM_BUDGET not found: default values used if required
 -- namelist NAM_BU_RU not found: default values used if required
 -- namelist NAM_BU_RV not found: default values used if required
 -- namelist NAM_BU_RW not found: default values used if required
 -- namelist NAM_BU_RTH not found: default values used if required
 -- namelist NAM_BU_RTKE not found: default values used if required
 -- namelist NAM_BU_RRV not found: default values used if required
 -- namelist NAM_BU_RRC not found: default values used if required
 -- namelist NAM_BU_RRR not found: default values used if required
 -- namelist NAM_BU_RRI not found: default values used if required
 -- namelist NAM_BU_RRS not found: default values used if required
 -- namelist NAM_BU_RRG not found: default values used if required
 -- namelist NAM_BU_RRH not found: default values used if required
 -- namelist NAM_BU_RSV not found: default values used if required
 -- namelist NAM_LES read
 -- namelist NAM_MEAN not found: default values used if required
 -- namelist NAM_PDF not found: default values used if required
 -- namelist NAM_FRC read
 -- namelist NAM_PARAM_ICE not found: default values used if required
 -- namelist NAM_PARAM_C2R2 not found: default values used if required
 -- namelist NAM_PARAM_C1R3 not found: default values used if required
 -- namelist NAM_PARAM_LIMA not found: default values used if required
 -- namelist NAM_ELEC not found: default values used if required
 -- namelist NAM_SERIES not found: default values used if required
 -- namelist NAM_TURB_CLOUD not found: default values used if required
 -- namelist NAM_TURB not found: default values used if required
 -- namelist NAM_CH_ORILAM not found: default values used if required
 -- namelist NAM_DUST not found: default values used if required
 -- namelist NAM_SALT not found: default values used if required
 -- namelist NAM_PASPOL not found: default values used if required
 -- namelist NAM_CONDSAMP not found: default values used if required
 -- namelist NAM_2D_FRC not found: default values used if required
 -- namelist NAM_BLOWSNOW not found: default values used if required
 -- namelist NAM_VISC not found: default values used if required

WARNING IN READ_EXSEG FOR MODEL  1 : 
----------------------------------
 YOU WANT TO USE THE ice3 SIMPLE MIXED PHASE
 MICROPHYSICAL SCHEME. YOU WILL ONLY HAVE VAPOR, CLOUD WATER,
 RAIN WATER, CLOUD ICE (MIXING RATIO AND CONCENTRATION)
 SNOW-AGGREGATES AND GRAUPELN.
 LUSERV,LUSERC,LUSERR,LUSERI,LUSECI,LUSERS,LUSERG ARE SET TO TRUE
 AND LUSERH TO FALSE

CAUTION ERROR IN READ_EXSEG FOR MODEL  1 : 
----------------------------------------
 YOU WANT TO USE TURBULENCE KINETIC ENERGY TKE
 WHEREAS IT  IS NOT IN INITIAL FMFILE
 TKE WILL BE INITIALIZED TO ZERO

CAUTION ERROR IN READ_EXSEG FOR MODEL  1 : 
----------------------------------------
 YOU WANT TO USE SBL DEPTH FOR RMC01
 WHEREAS IT IS NOT IN INITIAL FMFILE
 IT WILL BE INITIALIZED TO ZERO

CAUTION ERROR IN READ_EXSEG FOR MODEL  1 : 
----------------------------------------
YOU WANT TO USE CLOUD VARIABLE Rc WHEREAS IT  IS NOT IN INITIAL FMFILE
Rc WILL BE INITIALIZED TO ZERO

CAUTION ERROR IN READ_EXSEG FOR MODEL  1 : 
----------------------------------------
YOU WANT TO USE RAIN VARIABLE Rr WHEREAS IT IS NOT IN INITIAL FMFILE
 Rr WILL BE INITIALIZED TO ZERO

CAUTION ERROR IN READ_EXSEG FOR MODEL  1 : 
----------------------------------------
YOU WANT TO USE ICE VARIABLE Ri WHEREAS IT IS NOT IN INITIAL FMFILE
 Ri WILL BE INITIALIZED TO ZERO

CAUTION ERROR IN READ_EXSEG FOR MODEL  1 : 
----------------------------------------
YOU WANT TO USE ICE CONC. VARIABLE Ci WHEREAS IT IS NOT IN INITIAL FMFILE
   Ci WILL BE INITIALIZED TO ZERO

CAUTION ERROR IN READ_EXSEG FOR MODEL  1 : 
----------------------------------------
YOU WANT TO USE SNOW VARIABLE Rs WHEREAS IT IS NOT IN INITIAL FMFILE
 Rs WILL BE INITIALIZED TO ZERO

CAUTION ERROR IN READ_EXSEG FOR MODEL  1 : 
----------------------------------------
YOU WANT TO USE GRAUPEL VARIABLE Rg WHEREAS  IT IS NOTIN INITIAL FMFILE
Rg WILL BE INITIALIZED TO ZERO

CAUTION ERROR IN READ_EXSEG FOR MODEL  1 : 
----------------------------------------
 THE CLOUD FRACTION WILL BE INITIALIZED ACCORDING
 TO CLOUD MIXING RATIO VALUE OR SET TO 0

CAUTION ERROR IN READ_EXSEG FOR MODEL  1 : 
----------------------------------------
YOU WANT TO USE MOIST TURBULENCE WHEREAS IT 
 WAS NOT THE CASE FOR THE INITIAL FMFILE GENERATION
SRC AND SIGS ARE INITIALIZED TO 0

NOTE  IN READ_EXSEG FOR MODEL  1 : 
--------------------------------
 YOU DO NOT WANT TO USE SUBGRID CONDENSATION
 THE OVERLAP OPTION IS NOVLP=5 IN ini_radconf.f90


 DIMENSIONS INITIALIZED BY INI_SIZE_n :
NIMAX =    1 NJMAX =    1 NKMAX =   90
 -- namelist NAM_READ_DATA_COVER not found: default values used if required
 -- namelist NAM_CHS_ORILAM read
 -- namelist NAM_SURF_ATM read
 -- namelist NAM_WRITE_SURF_ATM read
 -- namelist NAM_CHS_ORILAM not found: default values used if required
 -- namelist NAM_SURF_ATM not found: default values used if required
 -- namelist NAM_WRITE_SURF_ATM not found: default values used if required
 -- namelist NAM_SURF_CSTS not found: default values used if required
 -- namelist NAM_SURF_SNOW_CSTS not found: default values used if required
 -- namelist NAM_REPROD_OPER not found: default values used if required
 -- namelist NAM_WRITE_COVER_TEX not found: default values used if required
 -- namelist NAM_AGRI not found: default values used if required
 -- namelist NAM_DEEPSOIL not found: default values used if required
 -- namelist NAM_TREEDRAG not found: default values used if required
 -- namelist NAM_SURF_SLT not found: default values used if required
 -- namelist NAM_SURF_SLT not found: default values used if required
 -- namelist NAM_SURF_DST read
 -- namelist NAM_SURF_DST not found: default values used if required
 -- namelist NAM_SURF_BLOWSNW not found: default values used if required
 -- namelist NAM_SURF_BLOWSNW not found: default values used if required
 -- namelist NAM_IDEAL_FLUX not found: default values used if required
 -- namelist NAM_ASSIM not found: default values used if required