&NAM_CONFIO   LCDF4=T,
              LLFIOUT=F,
              LLFIREAD=F/

&NAM_LUNITn CINIFILE='IDEAL_LANNEMEZAN',
            CINIFILEPGD='IDEAL_LANNEMEZAN_PGD'/

&NAM_REAL_PGD CPGD_FILE = '',
              LREAD_ZS= T, 
              LREAD_GROUND_PARAM= F /

&NAM_DIMn_PRE            NIMAX=1,
                         NJMAX=1 /

&NAM_CONF_PRE            LCARTESIAN = .TRUE.,
                         CEQNSYS = 'DUR',
                         NVERB = 10,
                         CIDEAL ='RSOU',
                         CZS = 'FLAT',
                         LBOUSS = .FALSE.,
                         LPERTURB = .FALSE.,
                         LSHIFT= .FALSE.,
                         LFORCING = .TRUE. /

&NAM_CONFn               LUSERV = .TRUE.,
                         LUSERC = .FALSE. /

&NAM_LBCn_PRE            CLBCX = 2*"CYCL", 
                         CLBCY = 2*"CYCL" / 

&NAM_GRID_PRE            XLON0=0.3674,
                         XLAT0=43.13,
                         XLATORI=43.13,
                         XLONORI=0.3674 ,
                         XRPK=-0.5 / 

&NAM_GRIDH_PRE           XDELTAX=1300 ,
                         XDELTAY=1300 ,
                         XLATCEN=43.13 ,
                         XLONCEN=0.3674 /

&NAM_VER_GRID            LTHINSHELL = .FALSE., 
                         NKMAX=90, 
                         YZGRID_TYPE='FUNCTN',
                         ZDZGRD=5,
                         ZDZTOP=700,
                         ZZMAX_STRGRD=2000,
                         ZSTRGRD =5, 
                         ZSTRTOP =10 /

&NAM_VPROF_PRE           LGEOSBAL = .FALSE. /

&NAM_GRn_PRE             CSURF = 'EXTE' /

&NAM_PGD_SCHEMES         CNATURE = 'ISBA'    , 
                         CSEA    = 'NONE'    , 
                         CTOWN   = 'NONE'    , 
                         CWATER  = 'NONE' /

&NAM_ISBA              XUNIF_CLAY    =0.2715,
                       XUNIF_SAND    =0.4265,
                       XUNIF_RUNOFFB = 0.5           ,
                       CISBA         = '3-L'         ,
                       CPHOTO        = 'NON'         ,
                       NPATCH        = 1             ,
                       NGROUND_LAYER = 3/

&NAM_PREP_SURF_ATM NYEAR  =2022 ,
                   NMONTH =09 ,
                   NDAY   =19 ,
                   XTIME  =21 /


&NAM_COVER    XUNIF_COVER(456)=0.5,
      XUNIF_COVER(361)=0.5 /
&NAM_FRAC LECOCLIMAP=T, XUNIF_NATURE=1 /

&NAM_PREP_ISBA           XHUG_SURF =0.166 ,
                         XHUG_ROOT =0.213 ,
                         XHUG_DEEP =0.3 ,
                   XTG_SURF  =288.48 ,
                   XTG_ROOT  =290.19 ,
                   XTG_DEEP  =290.49 ,
                   XHUGI_SURF=0,
                   XHUGI_ROOT=0,
                   XHUGI_DEEP=0,
                   LISBA_CANOPY=.FALSE.,
                   NYEAR  =2022 ,
                   NMONTH =09 ,
                   NDAY   =19,
                   XTIME  =21   /

&NAM_DATA_ISBA         NTIME = 1
                       XUNIF_VEG       =0.92 ,
                       XUNIF_LAI       =3.44 ,
                       XUNIF_Z0        =0.42 ,
                       XUNIF_EMIS      =0.966 /
RSOU
2022 9 19 75600
'STANDARD'
0
95060.6
284.85
275.874
2385
94912.91 210.441 0.929471
94827.195 213.361 0.913742
94727.695 216.323 0.869118
94641.5 219.31 0.800575
94549.59 222.702 0.711488
94436.9 227.009 0.607399
94279.305 0.0 0.498801
94191.0 0.0 0.398074
94098.1 0.0 0.309571
93974.2 0.0 0.231558
93864.695 0.0 0.169943
93734.9 0.0 0.135225
93643.7 0.0 0.114186
93549.5 0.0 0.0978317
93445.0 0.0 0.0925571
93316.7 0.0 0.0925571
93195.1 0.0 0.0925571
93093.91 0.0 0.148417
92988.4 0.0 0.169934
92890.4 0.0 0.26099
92781.0 0.0 0.301318
92666.805 0.0 0.386244
92565.6 0.0 0.469533
92426.9 34.2037 0.553325
92319.0 33.0636 0.637679
92214.695 31.4542 0.712731
92096.1 30.6413 0.740393
91970.9 28.6106 0.784058
91848.7 27.4432 0.78892
91744.9 26.6853 0.783219
91590.195 22.6469 0.724492
91441.9 18.4541 0.656658
91317.3 18.4541 0.656658
91212.5 0.0 0.439262
91103.6 0.0 0.439262
90982.4 0.0 0.439262
90855.7 0.0 0.271613
90732.6 0.0 0.276739
90593.4 0.0 0.325304
90497.0 0.0 0.420499
90375.0 0.0 0.420499
90261.9 246.506 0.511619
90135.8 240.723 0.560924
90016.805 236.297 0.592544
89847.4 232.786 0.610629
89730.4 228.808 0.625946
89612.8 223.608 0.633522
89472.305 214.264 0.612772
89352.1 211.15 0.599515
89221.9 204.885 0.580601
89093.3 198.262 0.567606
89011.1 191.316 0.554145
88896.805 185.154 0.533629
88815.4 180.724 0.507818
88681.8 0.0 0.482616
88585.9 0.0 0.453802
88480.8 0.0 0.416918
88352.305 0.0 0.382167
88241.0 0.0 0.362025
88118.91 0.0 0.376471
88009.0 0.0 0.399561
87896.9 0.0 0.471868
87800.9 246.661 0.61306
87689.5 248.347 0.660236
87579.2 250.781 0.750713
87484.4 251.985 0.831564
87365.4 251.629 0.897203
87273.3 250.103 0.946148
87164.1 248.428 0.981273
87068.8 246.851 1.00575
86952.805 244.777 1.02043
86855.8 241.877 1.02552
86786.4 238.764 1.0197
86685.6 234.86 1.00737
86579.0 233.711 1.00768
86482.8 231.437 1.01314
86378.6 229.407 1.0182
86291.195 227.685 1.02389
86174.8 226.137 1.0419
86073.3 224.229 1.07577
85971.805 221.991 1.11774
85860.0 219.314 1.19229
85740.4 218.604 1.22632
85659.0 216.922 1.31405
85549.1 214.701 1.41667
85456.7 212.626 1.5182
85351.9 211.356 1.62094
85257.7 210.657 1.73539
85157.4 210.217 1.85536
85056.3 210.142 1.96055
84938.7 210.721 2.04963
84794.0 211.98 2.12685
84673.0 213.85 2.19422
84578.305 216.171 2.24823
84476.4 219.108 2.29539
84382.9 222.457 2.35069
84280.4 225.819 2.41434
84182.6 229.186 2.48026
84067.8 232.619 2.56004
83945.695 235.704 2.66682
83842.7 238.056 2.78992
83744.9 239.879 2.91191
83639.695 241.367 3.03548
83545.6 242.378 3.16982
83456.09 242.642 3.23747
83365.1 242.746 3.41224
83278.9 242.695 3.45879
83183.9 242.695 3.45879
83098.1 242.695 3.45879
82906.0 240.856 3.70266
82797.1 240.599 3.68547
82698.8 240.481 3.67164
82603.195 240.214 3.62972
82508.0 240.008 3.56552
82402.1 239.96 3.47961
82307.8 239.899 3.37818
82212.2 239.549 3.26456
82095.6 238.52 3.05898
81987.09 238.067 2.98004
81901.9 236.696 2.81375
81793.2 234.292 2.64593
81697.6 228.559 2.4043
81602.5 226.137 2.32925
81512.0 220.536 2.2021
81415.4 213.819 2.11899
81318.59 206.54 2.09302
81212.59 199.75 2.12134
81112.2 194.203 2.18361
80995.8 190.041 2.26171
80897.1 186.02 2.38517
80793.59 185.368 2.42051
80707.5 185.199 2.47101
80583.9 186.194 2.4873
80469.0 187.876 2.46539
80369.7 190.183 2.40606
80274.1 193.285 2.32209
80147.305 197.013 2.22458
80038.3 200.936 2.11411
79942.5 205.003 1.99021
79794.7 209.387 1.8687
79666.4 213.765 1.76924
79540.4 217.288 1.6949
79433.805 219.571 1.63445
79343.59 220.859 1.58553
79243.59 221.281 1.55803
79126.4 220.733 1.56283
79016.7 219.149 1.60167
78915.9 217.053 1.65716
78811.7 214.931 1.72063
78732.1 212.365 1.82601
78630.9 211.799 1.86263
78537.2 211.187 1.93214
78484.805 211.143 1.98614
78391.4 211.466 2.01861
78299.1 213.178 2.02572
78197.6 214.293 2.0178
78092.0 217.195 1.99143
78000.9 220.693 1.95875
77907.9 224.584 1.92082
77816.305 229.269 1.87939
77708.195 235.038 1.84909
77595.0 241.512 1.84073
77514.9 248.21 1.85444
77393.8 254.855 1.89223
77247.195 258.078 1.92093
77143.7 270.147 2.10986
77055.9 270.147 2.10986
76958.6 277.988 2.31168
76877.0 284.225 2.52984
76758.805 285.926 2.60428
76675.6 290.226 2.83547
76583.4 291.478 2.91369
76470.9 293.725 3.06823
76391.805 295.661 3.21109
76292.4 297.281 3.33204
76203.805 298.689 3.43178
76108.6 299.943 3.5191
76011.4 301.073 3.59533
75923.9 302.12 3.65478
75821.1 303.494 3.70992
75727.195 303.879 3.71883
75594.9 304.526 3.72258
75491.1 305.004 3.70759
75394.4 305.311 3.67829
75305.1 305.393 3.66126
75190.805 304.991 3.60136
75083.1 304.2 3.54848
74976.4 303.23 3.48954
74878.6 302.063 3.43812
74785.7 300.52 3.40208
74694.1 298.562 3.37226
74575.7 296.489 3.34427
74493.5 294.602 3.33007
74418.3 292.831 3.33609
74313.2 290.992 3.35346
74244.9 289.202 3.36874
74149.0 288.425 3.37568
74043.5 286.519 3.40295
73842.4 284.363 3.42531
73759.0 283.595 3.43246
73664.4 283.089 3.44012
73578.0 282.671 3.44815
73485.4 282.334 3.46501
73390.9 282.249 3.47939
73308.195 282.33 3.54538
73216.6 282.63 3.60398
73132.1 283.205 3.71959
73030.9 283.377 3.76949
72925.5 283.662 3.88297
72832.5 283.895 4.01078
72752.805 284.11 4.14298
72667.8 284.197 4.27759
72578.695 284.104 4.41452
72474.91 283.845 4.55267
72390.305 283.319 4.75209
72309.5 283.128 4.81678
72214.0 282.753 4.94418
72128.0 282.434 5.06677
72043.5 282.126 5.18228
71944.1 281.91 5.29281
71854.5 281.789 5.40012
71723.0 281.725 5.49931
71616.305 281.713 5.5445
71524.0 281.703 5.65942
71421.4 281.717 5.72667
71333.6 281.691 5.75844
71234.1 281.289 5.82641
71149.7 280.756 5.84088
71049.0 280.133 5.84012
70951.9 279.326 5.84007
70856.3 278.186 5.83801
70750.9 276.769 5.82276
70642.7 274.571 5.7866
70564.5 273.851 5.78228
70452.305 273.114 5.78452
70369.6 270.896 5.81671
70279.8 269.658 5.84299
70187.2 268.786 5.87477
70084.9 268.253 5.92253
69996.805 268.253 5.92253
69899.5 268.204 6.05472
69801.0 268.756 6.11385
69726.7 269.592 6.16842
69631.2 271.269 6.23951
69533.6 271.934 6.25862
69446.0 273.404 6.28839
69365.305 275.034 6.30443
69264.0 276.785 6.30661
69167.7 278.571 6.29571
69083.695 280.349 6.27345
69002.0 282.186 6.24157
68888.8 284.115 6.20561
68794.9 286.035 6.1763
68720.3 288.713 6.14982
68609.0 289.563 6.1455
68498.8 291.228 6.14488
68397.4 293.521 6.17925
68307.4 294.186 6.20031
68216.0 295.38 6.25556
68110.4 296.386 6.31594
68008.3 297.247 6.37624
67920.5 298.252 6.47615
67829.2 298.511 6.50681
67719.1 298.928 6.55261
67631.0 299.277 6.56898
67525.2 299.623 6.56202
67420.3 299.952 6.5365
67338.7 300.247 6.48475
67239.805 300.548 6.40563
67137.91 300.952 6.30488
67047.6 301.503 6.19295
66930.2 302.166 6.07947
66845.8 302.957 5.97779
66762.0 303.859 5.8887
66679.8 304.875 5.81299
66579.7 306.015 5.75556
66497.305 307.187 5.73015
66406.7 308.353 5.74096
66297.1 309.577 5.78096
66216.0 310.86 5.84378
66117.9 312.675 5.96592
66018.91 313.201 6.01054
65941.4 314.199 6.10425
65844.5 315.842 6.25975
65758.9 317.017 6.36751
65660.8 317.582 6.41904
65562.5 318.622 6.51374
65489.9 319.593 6.59343
65400.3 320.576 6.66556
65293.1 321.491 6.73719
65188.0 322.22 6.80523
65099.902 322.758 6.86641
65013.703 323.133 6.92421
64918.0 323.289 6.9803
64837.598 323.123 7.03679
64738.3 322.662 7.09727
64606.203 322.044 7.15905
64486.6 321.363 7.22069
64382.598 320.556 7.2847
64288.4 319.588 7.35221
64219.3 318.57 7.41921
64133.0 317.709 7.47861
64026.098 317.034 7.5268
63952.3 316.42 7.56217
63849.297 315.809 7.57999
63761.2 315.27 7.58074
63672.1 314.816 7.57312
63582.9 314.357 7.55904
63511.1 313.801 7.5352
63440.7 313.145 7.50287
63363.203 312.356 7.47806
63270.098 311.406 7.47239
63180.5 310.337 7.48242
63094.8 309.221 7.50267
63009.1 308.076 7.53989
62920.203 306.898 7.59575
62834.9 305.794 7.65972
62743.5 304.88 7.71805
62628.3 303.885 7.77829
62530.2 303.611 7.79229
62449.5 303.113 7.80834
62359.6 302.725 7.79896
62303.2 302.512 7.75752
62254.6 302.427 7.69323
62199.2 302.31 7.61647
62125.9 302.113 7.53523
62042.1 301.905 7.45063
61929.6 301.694 7.36575
61843.0 301.439 7.29311
61751.9 301.149 7.24207
61662.2 300.903 7.20715
61561.902 300.741 7.17997
61484.7 300.681 7.16817
61396.3 300.879 7.19288
61301.598 301.053 7.20788
61236.0 301.587 7.23083
61147.805 302.339 7.238
61048.2 303.273 7.23835
60980.402 304.881 7.25389
60878.2 305.454 7.25594
60781.402 306.626 7.23974
60703.996 307.785 7.19976
60595.4 308.825 7.14875
60496.6 309.592 7.0898
60408.195 310.107 6.96718
60343.2 310.135 6.91797
60272.1 309.996 6.81701
60150.598 309.507 6.72127
60059.1 308.567 6.63149
59975.703 307.23 6.54621
59876.8 305.697 6.47239
59791.496 304.082 6.42864
59723.0 302.393 6.42169
59614.4 300.639 6.44038
59505.1 298.968 6.4731
59412.2 297.584 6.51749
59330.5 296.461 6.57465
59236.5 295.475 6.64
59143.598 294.58 6.70661
59068.902 293.898 6.76715
58995.598 293.481 6.81419
58902.4 293.193 6.85157
58835.5 292.912 6.88489
58747.4 292.663 6.91548
58665.9 292.499 6.94784
58584.1 292.379 6.98284
58510.305 292.278 7.02278
58432.0 292.204 7.07472
58352.8 292.151 7.13945
58263.0 292.079 7.21115
58155.1 291.93 7.31925
58055.7 291.882 7.35771
57988.4 291.756 7.43957
57899.402 291.56 7.51993
57826.9 291.357 7.58773
57742.2 291.231 7.64656
57672.9 291.196 7.7072
57574.7 291.185 7.77151
57486.1 291.198 7.82984
57386.6 291.387 7.88054
57290.9 291.842 7.93802
57210.1 292.466 8.0112
57130.7 293.146 8.09309
57055.902 293.892 8.17865
56977.1 294.707 8.27858
56890.9 295.477 8.39201
56814.8 296.06 8.50277
56734.6 296.415 8.60132
56653.4 296.588 8.69716
56583.8 296.541 8.79554
56526.5 296.157 8.88859
56457.203 295.406 8.9614
56383.504 294.381 9.01864
56300.402 293.22 9.0751
56229.1 291.992 9.1301
56159.7 290.693 9.18003
56077.504 289.376 9.22242
56002.7 288.138 9.25485
55862.598 286.214 9.29668
55800.9 285.553 9.29882
55705.6 285.065 9.27974
55635.5 284.738 9.24016
55546.996 284.544 9.1833
55464.3 284.479 9.1072
55383.195 284.563 9.00899
55287.703 284.742 8.89654
55207.598 284.938 8.77236
55141.2 285.151 8.62775
55050.402 285.459 8.45465
54972.1 285.912 8.26114
54891.805 286.443 8.05845
54812.5 286.99 7.83732
54761.797 287.652 7.58678
54686.5 288.511 7.31812
54600.5 289.529 7.04974
54526.9 290.661 6.78803
54440.996 291.922 6.53154
54362.297 293.364 6.28587
54279.7 295.02 6.06523
54178.996 296.85 5.88425
54114.9 298.746 5.75903
54024.297 301.512 5.67974
53952.1 302.373 5.67851
53884.7 303.96 5.70701
53804.305 305.298 5.77394
53733.195 306.238 5.88111
53630.6 306.764 6.01832
53526.3 306.976 6.15936
53450.3 306.829 6.28185
53377.4 306.244 6.38026
53288.598 305.289 6.4532
53228.9 304.146 6.49306
53165.504 302.899 6.49506
53092.797 301.515 6.45617
53011.902 299.99 6.37857
52938.598 298.502 6.27806
52875.0 297.235 6.16851
52820.098 296.238 6.05176
52757.4 295.547 5.93543
52695.203 295.182 5.83526
52614.6 295.201 5.75885
52533.3 295.669 5.70511
52457.4 296.509 5.68041
52376.9 297.537 5.69176
52305.1 298.54 5.73093
52224.5 299.438 5.77599
52150.8 300.281 5.81499
52089.5 301.034 5.84796
52026.098 301.592 5.86356
51936.6 301.979 5.84774
51844.3 302.24 5.78797
51789.0 302.425 5.68203
51711.7 302.585 5.53832
51653.496 302.748 5.3631
51590.9 302.941 5.16169
51506.5 303.147 4.9436
51421.8 303.342 4.72481
51350.402 303.508 4.51892
51266.6 303.526 4.33377
51181.203 303.147 4.17742
51121.7 302.302 4.06058
51053.203 301.091 3.98716
50988.5 299.515 3.96127
50934.9 297.516 3.98667
50884.9 295.236 4.0589
50815.5 292.979 4.17061
50728.9 290.916 4.31674
50657.7 289.016 4.49315
50590.703 287.354 4.68692
50530.5 286.13 4.87841
50456.5 285.404 5.05054
50382.7 285.033 5.19747
50331.8 284.957 5.32452
50264.0 285.181 5.42668
50184.297 285.7 5.48549
50118.9 286.479 5.49879
50065.4 287.405 5.48029
50006.7 288.402 5.44175
49941.2 289.501 5.38871
49886.5 290.722 5.32505
49818.5 291.986 5.25546
49745.3 293.198 5.19334
49646.9 294.313 5.15311
49576.3 295.312 5.1449
49495.2 296.134 5.1687
49423.402 296.77 5.21984
49370.0 297.25 5.2981
49288.5 297.565 5.40542
49225.5 297.764 5.53853
49169.4 297.849 5.69253
49100.7 297.831 5.85402
49037.9 297.807 6.00812
48957.902 297.845 6.14901
48891.902 297.917 6.27233
48848.2 298.007 6.37205
48785.598 298.194 6.44315
48704.402 298.51 6.47857
48599.2 298.908 6.47249
48530.2 299.292 6.42884
48469.0 299.665 6.35983
48429.5 300.083 6.27327
48384.1 300.477 6.16758
48332.598 300.781 6.03824
48280.9 300.985 5.89072
48228.1 301.127 5.74372
48165.2 301.133 5.61372
48110.902 300.969 5.49653
48048.598 300.709 5.38324
47973.402 300.411 5.27533
47900.4 300.118 5.18277
47841.3 299.752 5.11194
47790.1 299.289 5.06088
47713.4 298.855 5.02279
47638.902 298.567 4.99007
47558.9 298.415 4.96182
47488.7 298.365 4.94549
47412.9 298.48 4.94434
47320.2 298.801 4.9547
47238.3 299.329 4.97175
47190.5 300.146 4.99829
47093.9 301.275 5.03747
47030.098 302.583 5.09465
46979.5 304.005 5.17057
46909.9 305.518 5.26223
46866.3 307.044 5.36688
46808.8 308.441 5.48324
46744.8 309.615 5.61021
46670.0 310.545 5.73863
46590.1 311.188 5.86142
46524.5 311.504 5.98185
46465.703 311.492 6.10633
46411.0 311.185 6.23076
46370.598 310.653 6.34958
46323.2 310.018 6.46798
46275.1 309.387 6.58843
46222.5 308.772 6.70497
46167.098 308.212 6.81679
46108.402 307.822 6.92709
46047.3 307.719 7.03711
45975.4 307.906 7.14683
45892.5 308.32 7.24354
45830.8 308.919 7.32231
45758.5 309.676 7.39607
45695.3 310.569 7.47244
45633.098 311.51 7.54882
45567.098 312.419 7.61776
45498.5 313.296 7.67573
45415.3 314.115 7.72415
45339.7 314.779 7.76643
45294.902 315.238 7.79979
45211.402 315.543 7.81745
45118.5 315.739 7.81143
45042.598 315.803 7.78353
44975.4 315.734 7.74239
44920.402 315.585 7.68433
44866.2 315.388 7.60157
44809.297 315.168 7.49789
44759.8 314.982 7.37865
44706.6 314.857 7.24832
44654.8 314.779 7.11124
44601.2 314.769 6.9702
44542.5 314.902 6.82172
44489.9 315.164 6.67035
44419.6 315.444 6.52384
44360.2 315.726 6.38424
44308.5 316.063 6.24828
44245.902 316.45 6.1141
44185.2 316.827 5.98861
44122.9 317.098 5.88426
44043.4 317.263 5.80009
43959.0 317.387 5.73746
43899.5 317.525 5.70029
43853.0 317.688 5.69574
43800.0 317.875 5.73148
43744.2 318.086 5.80506
43669.5 318.314 5.91282
43596.7 318.614 6.05547
43527.2 319.052 6.23148
43472.6 319.617 6.42923
43408.6 320.22 6.63331
43342.7 320.827 6.83862
43271.797 321.433 7.04562
43218.797 322.019 7.24591
43166.4 322.603 7.42873
43118.2 323.186 7.59099
43067.598 323.71 7.73174
43012.0 324.117 7.85115
42954.598 324.422 7.95576
42903.8 324.686 8.04288
42848.402 324.883 8.10338
42796.7 324.925 8.14088
42736.7 324.801 8.17337
42670.402 324.552 8.20336
42613.4 324.17 8.22704
42557.3 323.619 8.24269
42496.0 322.917 8.24743
42434.8 322.059 8.24488
42380.098 321.043 8.24421
42275.9 318.86 8.26903
42232.402 317.784 8.28651
42180.098 316.747 8.29812
42143.4 315.789 8.3045
42083.402 314.964 8.30584
42020.7 314.318 8.30513
41948.598 313.85 8.30134
41879.5 313.557 8.29016
41798.098 313.408 8.27233
41739.098 313.414 8.23364
41675.8 313.458 8.2196
41612.297 313.613 8.19773
41554.7 313.82 8.19026
41490.8 314.027 8.19459
41416.5 314.208 8.21058
41343.3 314.33 8.24978
41267.9 314.374 8.35604
41200.8 314.359 8.39928
41157.1 314.314 8.49433
41118.1 314.233 8.60318
41071.0 314.084 8.72258
41019.8 313.926 8.83778
40967.3 313.838 8.9402
40913.3 313.808 9.02643
40867.098 313.792 9.09592
40812.703 313.813 9.15045
40760.3 313.922 9.18874
40706.297 314.101 9.20725
40654.8 314.302 9.20887
40602.1 314.47 9.2033
40542.5 314.594 9.20015
40486.5 314.634 9.20887
40421.1 314.554 9.23495
40362.703 314.342 9.28378
40308.098 313.979 9.35403
40254.2 313.427 9.44411
40186.9 312.674 9.55195
40132.1 311.761 9.68685
40063.902 310.749 9.8475
40004.0 309.677 10.0275
39949.5 308.556 10.2156
39911.2 307.418 10.4068
39845.098 306.304 10.604
39797.2 305.262 10.8058
39751.598 304.323 11.0094
39707.1 303.477 11.2134
39659.0 302.732 11.4149
39606.0 302.092 11.6092
39557.8 301.559 11.7981
39500.1 301.121 11.9849
39439.8 300.76 12.1619
39377.3 300.465 12.3188
39308.0 300.244 12.4547
39240.5 300.068 12.5691
39181.6 299.909 12.6555
39120.2 299.777 12.7066
39071.2 299.675 12.7232
39018.6 299.578 12.714
38972.1 299.461 12.6853
38923.5 299.333 12.6371
38875.5 299.208 12.5691
38830.3 299.057 12.4974
38785.902 298.882 12.4369
38742.3 298.698 12.3944
38688.902 298.49 12.3754
38627.9 298.257 12.3832
38574.2 298.024 12.4151
38533.098 297.812 12.4638
38486.8 297.58 12.5282
38439.402 297.313 12.614
38398.2 297.03 12.7111
38346.6 296.746 12.8039
38289.6 296.436 12.8804
38236.9 296.063 12.9346
38186.6 295.634 12.9682
38131.6 295.168 12.9821
38082.598 294.639 12.9788
38030.5 294.035 12.9511
37979.7 293.399 12.8962
37924.3 292.768 12.8291
37869.3 292.138 12.7655
37796.2 291.492 12.7079
37726.098 290.866 12.6592
37658.5 290.324 12.625
37597.7 289.904 12.6101
37524.9 289.573 12.62
37440.1 289.298 12.6651
37378.1 289.09 12.746
37323.598 288.899 12.926
37273.902 288.859 12.9994
37215.9 288.788 13.1639
37170.3 288.706 13.3547
37110.3 288.574 13.5649
37034.1 288.391 13.7826
36964.6 288.177 13.9991
36889.6 287.924 14.2087
36815.8 287.619 14.4057
36751.3 287.283 14.5822
36683.402 286.932 14.7362
36628.6 286.576 14.8615
36579.902 286.235 14.9522
36496.0 285.906 15.0087
36444.7 285.57 15.0377
36407.598 285.247 15.0539
36362.5 284.976 15.0586
36323.3 284.756 15.0465
36268.3 284.553 15.0287
36218.703 284.355 15.0181
36178.3 284.195 15.0211
36133.2 284.091 15.0416
36087.5 284.019 15.0808
36035.3 283.965 15.132
35983.6 283.944 15.1886
35939.5 283.957 15.2556
35885.8 283.963 15.3373
35838.598 283.928 15.4171
35791.8 283.884 15.4822
35731.7 283.834 15.5314
35671.6 283.742 15.5661
35602.8 283.584 15.5895
35541.8 283.351 15.6038
35482.598 283.066 15.6063
35433.9 282.75 15.5968
35392.0 282.396 15.5785
35348.2 282.007 15.5622
35299.797 281.581 15.5542
35251.098 281.134 15.5571
35204.402 280.686 15.5671
35158.3 280.252 15.5837
35112.5 279.838 15.6069
35066.0 279.432 15.6394
35027.6 279.047 15.6806
34977.9 278.686 15.727
34928.3 278.35 15.7716
34878.7 278.046 15.812
34827.0 277.783 15.8502
34789.098 277.557 15.8859
34744.8 277.365 15.9222
34699.9 277.209 15.9591
34651.402 277.099 15.9907
34601.8 277.026 16.0208
34553.4 276.965 16.0514
34508.9 276.914 16.0827
34459.5 276.881 16.1168
34416.4 276.844 16.1522
34374.2 276.768 16.1873
34334.1 276.653 16.2207
34287.0 276.512 16.2542
34244.6 276.339 16.2903
34198.902 276.129 16.3254
34149.0 275.888 16.359
34104.902 275.621 16.3919
34051.7 275.359 16.4263
34004.598 275.126 16.468
33960.2 274.918 16.5146
33915.8 274.742 16.5604
33877.1 274.617 16.6069
33833.9 274.556 16.6531
33793.1 274.55 16.7011
33748.2 274.596 16.7491
33715.703 274.682 16.7947
33675.6 274.805 16.8341
33637.4 274.954 16.8657
33592.3 275.131 16.8896
33553.5 275.309 16.9078
33504.5 275.477 16.9185
33462.8 275.636 16.9209
33414.9 275.787 16.9167
33358.8 275.924 16.908
33311.8 276.043 16.8997
33263.1 276.141 16.8895
33220.098 276.215 16.8814
33171.0 276.266 16.8751
33127.1 276.315 16.8736
33088.0 276.36 16.8785
33048.0 276.403 16.8888
33002.4 276.456 16.9033
32952.9 276.52 16.9216
32913.598 276.578 16.9431
32871.9 276.638 16.9723
32826.098 276.715 17.0132
32781.1 276.796 17.0647
32742.4 276.852 17.1257
32701.8 276.861 17.1944
32661.6 276.833 17.2779
32614.498 276.768 17.3788
32568.398 276.646 17.4963
32525.602 276.463 17.6226
32488.0 276.226 17.7483
32431.299 275.956 17.866
32377.8 275.681 17.9759
32323.4 275.42 18.0755
32268.5 275.179 18.1561
32205.8 274.984 18.2082
32137.799 274.856 18.2283
32083.5 274.805 18.2178
32034.299 274.849 18.1824
31990.1 274.989 18.1289
31941.9 275.219 18.0637
31907.4 275.527 17.9917
31823.002 276.32 17.862
31785.0 276.75 17.8187
31744.5 277.185 17.7963
31712.602 277.603 17.7944
31675.799 277.981 17.8134
31626.098 278.313 17.8494
31585.502 278.599 17.8976
31540.0 278.845 17.9528
31502.201 279.063 18.008
31465.0 279.261 18.0597
31425.102 279.432 18.1025
31388.9 279.588 18.1363
31351.8 279.749 18.1625
31317.002 279.929 18.1844
31274.898 280.112 18.1999
31231.602 280.283 18.207
31188.7 280.447 18.2129
31145.1 280.606 18.2277
31094.0 280.758 18.2536
31045.1 280.888 18.2847
30996.0 280.991 18.318
30957.502 281.078 18.3569
30912.201 281.147 18.4056
30872.299 281.196 18.465
30827.3 281.23 18.5295
30777.8 281.259 18.5934
30735.6 281.283 18.6542
30699.1 281.303 18.7185
30659.799 281.311 18.789
30619.8 281.329 18.8624
30581.299 281.37 18.9364
30544.4 281.418 19.0126
30502.201 281.464 19.093
30463.7 281.504 19.1802
30423.7 281.537 19.276
30383.8 281.573 19.3777
30343.9 281.603 19.4855
30303.102 281.614 19.599
30265.3 281.61 19.7185
30229.2 281.582 19.8462
30179.0 281.52 19.9787
30144.9 281.427 20.1131
30104.9 281.304 20.2474
30065.9 281.164 20.3845
30026.6 281.002 20.5236
29982.9 280.811 20.6677
29943.201 280.592 20.8176
29896.398 280.35 20.9724
29860.9 280.099 21.1338
29827.201 279.84 21.301
29785.502 279.577 21.479
29742.3 279.308 21.6699
29695.3 279.038 21.8689
29649.201 278.776 22.0712
29590.701 278.516 22.2757
29534.5 278.26 22.4829
29493.3 278.008 22.6858
29455.398 277.762 22.879
29415.9 277.523 23.0523
29375.4 277.295 23.203
29338.2 277.064 23.3363
29306.201 276.826 23.4503
29278.4 276.59 23.5393
29242.3 276.362 23.6007
29204.0 276.144 23.638
29162.9 275.917 23.6626
29122.2 275.683 23.6817
29087.602 275.449 23.6982
29047.7 275.217 23.7126
29003.9 274.991 23.7293
28968.701 274.765 23.7559
28928.4 274.541 23.7976
28891.299 274.331 23.8569
28845.6 274.128 23.9311
28807.6 273.93 24.0175
28765.1 273.746 24.1101
28726.6 273.593 24.2092
28693.9 273.475 24.3148
28656.1 273.384 24.4229
28621.0 273.315 24.5283
28584.9 273.273 24.6252
28545.7 273.272 24.7099
28504.4 273.308 24.7838
28466.299 273.375 24.8502
28426.3 273.459 24.9089
28386.701 273.557 24.9584
28351.098 273.67 24.9952
28314.002 273.797 25.019
28280.701 273.93 25.0371
28240.5 274.056 25.0532
28204.0 274.166 25.0693
28166.102 274.259 25.0815
28127.701 274.339 25.0882
28091.8 274.405 25.0954
28054.998 274.448 25.1103
28021.398 274.463 25.1343
27981.1 274.448 25.1602
27935.6 274.401 25.1857
27902.6 274.334 25.2137
27863.5 274.249 25.2501
27823.6 274.144 25.2941
27785.2 274.014 25.34
27744.5 273.864 25.3841
27708.1 273.701 25.4245
27664.8 273.536 25.464
27623.498 273.374 25.5027
27578.299 273.216 25.5394
27537.701 273.059 25.5722
27490.5 272.899 25.6026
27451.3 272.746 25.6302
27410.299 272.556 25.6667
27369.102 272.503 25.6793
27326.0 272.397 25.7049
27272.7 272.282 25.732
27229.7 272.169 25.7606
27192.898 272.069 25.7906
27148.8 271.973 25.8248
27110.4 271.86 25.8621
27068.701 271.664 25.9103
27031.299 271.596 25.924
26993.3 271.467 25.9526
26955.5 271.337 25.9858
26914.1 271.189 26.0281
26878.0 271.029 26.0786
26838.8 270.865 26.1381
26799.5 270.706 26.2089
26751.9 270.552 26.2939
26713.102 270.399 26.4008
26668.1 270.234 26.5283
26623.902 270.054 26.6721
26573.4 269.866 26.8205
26532.502 269.671 26.965
26498.498 269.476 27.1007
26457.9 269.274 27.2219
26418.398 269.055 27.3211
26344.9 268.827 27.3873
26290.1 268.6 27.4147
26246.398 268.387 27.4004
26209.299 268.187 27.3492
26180.2 268.006 27.2687
26146.3 267.841 27.1639
26117.898 267.698 27.0394
26083.6 267.586 26.9055
26038.8 267.504 26.7706
26005.3 267.452 26.6405
25968.5 267.424 26.5272
25931.5 267.413 26.4328
25892.6 267.407 26.3577
25855.5 267.41 26.2995
25819.0 267.424 26.2557
25783.8 267.441 26.2248
25742.002 267.45 26.2009
25704.3 267.463 26.1776
25670.6 267.494 26.1527
25634.0 267.542 26.1327
25596.299 267.606 26.1168
25561.799 267.686 26.099
25523.6 267.798 26.0784
25482.201 267.955 26.0592
25448.1 268.149 26.0476
25408.799 268.372 26.0452
25374.299 268.618 26.0534
25329.1 268.886 26.0702
25288.7 269.18 26.0901
25255.9 269.492 26.1057
25215.8 269.789 26.1143
25177.8 270.045 26.1227
25140.8 270.262 26.1313
25103.5 270.445 26.1329
25065.9 270.594 26.1156
25029.8 270.69 26.0817
24994.0 270.721 26.0455
24960.1 270.684 26.0175
24920.0 270.572 25.9987
24882.5 270.409 25.9864
24849.7 270.207 25.9862
24815.9 269.957 26.0041
24775.701 269.635 26.0474
24741.6 269.246 26.1184
24696.1 268.801 26.2141
24636.6 268.31 26.3252
24584.6 267.759 26.4419
24519.1 267.141 26.5618
24450.102 266.467 26.6809
24395.6 265.752 26.7921
24358.799 265.011 26.8838
24316.0 264.251 26.95
24257.5 263.493 26.9895
24205.0 262.752 27.0062
24164.2 262.052 26.9977
24117.7 261.414 26.963
24063.201 260.851 26.9058
24015.1 260.375 26.8316
23978.5 259.995 26.7484
23956.1 259.717 26.6596
23914.799 259.536 26.5702
23886.9 259.448 26.482
23852.299 259.442 26.3971
23814.102 259.494 26.3203
23781.7 259.576 26.2552
23712.7 259.828 26.1709
23676.0 259.998 26.1385
23643.0 260.166 26.1063
23608.6 260.323 26.0815
23573.1 260.481 26.0701
23536.799 260.648 26.0672
23503.799 260.83 26.0582
23468.9 261.035 26.0387
23435.4 261.276 26.0142
23405.6 261.535 25.9878
23372.2 261.806 25.9559
23335.0 262.114 25.9155
23301.7 262.468 25.8617
23265.3 262.866 25.7945
23233.0 263.291 25.7159
23199.299 263.74 25.6283
23163.6 264.223 25.5343
23123.6 264.736 25.4316
23085.7 265.272 25.3167
23043.1 265.835 25.1901
22989.3 266.433 25.0567
22939.799 267.057 24.9165
22901.1 267.687 24.7664
22861.5 268.328 24.6078
22821.5 268.998 24.4413
22788.201 269.699 24.267
22753.4 270.401 24.0957
22716.5 271.074 23.9284
22682.7 271.706 23.7611
22647.5 272.301 23.5926
22609.398 272.845 23.4293
22572.9 273.303 23.2766
22535.898 273.656 23.1296
22480.0 273.9 22.9804
22414.3 274.041 22.8297
22375.2 274.089 22.6769
22345.9 274.058 22.5215
22305.5 273.971 22.3657
22271.4 273.86 22.2078
22241.6 273.745 22.0493
22203.9 273.659 21.8898
22162.3 273.641 21.7344
22115.3 273.713 21.5887
22066.9 273.896 21.4557
22018.7 274.204 21.3303
21981.6 274.641 21.2135
21957.3 275.19 21.1091
21928.9 275.844 21.0155
21897.701 276.585 20.927
21862.1 277.386 20.8362
21834.398 278.233 20.7392
21804.201 279.093 20.632
21770.799 279.947 20.5055
21738.201 280.795 20.3588
21706.1 281.617 20.1924
21671.7 282.382 20.0022
21635.8 283.082 19.7897
21598.8 283.725 19.5595
21572.6 284.334 19.3203
21542.2 284.895 19.0806
21512.7 285.38 18.8461
21477.8 285.798 18.6157
21444.2 286.18 18.3909
21418.6 286.546 18.1809
21388.1 286.884 17.9939
21357.0 287.186 17.8249
21326.602 287.473 17.6648
21297.3 287.765 17.5088
21272.2 288.061 17.3566
21240.2 288.345 17.2125
21208.1 288.613 17.0722
21176.7 288.866 16.9317
21144.9 289.095 16.789
21113.6 289.299 16.6451
21081.6 289.466 16.5085
21051.1 289.601 16.3869
21022.3 289.7 16.2837
20996.4 289.756 16.1997
20965.602 289.787 16.1379
20938.1 289.793 16.1047
20906.1 289.765 16.1074
20872.4 289.713 16.1438
20845.6 289.641 16.2087
20815.2 289.551 16.2947
20786.4 289.446 16.3958
20752.5 289.318 16.5079
20721.5 289.158 16.6217
20690.8 288.973 16.7273
20660.1 288.766 16.8171
20634.3 288.541 16.8826
20603.0 288.307 16.9207
20573.1 288.065 16.9302
20543.3 287.826 16.9124
20514.701 287.609 16.871
20486.5 287.426 16.8052
20455.5 287.287 16.7146
20430.5 287.192 16.6101
20400.102 287.157 16.5
20368.6 287.188 16.3882
20341.4 287.291 16.2729
20312.398 287.451 16.1538
20285.201 287.656 16.038
20251.3 287.894 15.9273
20220.0 288.151 15.8242
20187.3 288.42 15.7248